[TITLE]
;;Project Title/Notes

[OPTIONS]
;;Option             Value
FLOW_UNITS           CFS
INFILTRATION         GREEN_AMPT
FLOW_ROUTING         KINWAVE
LINK_OFFSETS         DEPTH
MIN_SLOPE            0
ALLOW_PONDING        NO
SKIP_STEADY_STATE    NO

START_DATE           01/01/2000
START_TIME           00:00:00
REPORT_START_DATE    01/01/2000
REPORT_START_TIME    00:00:00
END_DATE             01/01/2000
END_TIME             12:00:00
SWEEP_START          01/01
SWEEP_END            12/31
DRY_DAYS             0
REPORT_STEP          00:05:00
WET_STEP             00:05:00
DRY_STEP             01:00:00
ROUTING_STEP         0:05:00 
RULE_STEP            00:00:00

INERTIAL_DAMPING     PARTIAL
NORMAL_FLOW_LIMITED  BOTH
FORCE_MAIN_EQUATION  H-W
VARIABLE_STEP        0.75
LENGTHENING_STEP     0
MIN_SURFAREA         12.566
MAX_TRIALS           8
HEAD_TOLERANCE       0.005
SYS_FLOW_TOL         5
LAT_FLOW_TOL         5
MINIMUM_STEP         0.5
THREADS              1

[EVAPORATION]
;;Data Source    Parameters
;;-------------- ----------------
CONSTANT         0.0
DRY_ONLY         NO

[RAINGAGES]
;;Name           Format    Interval SCF      Source    
;;-------------- --------- ------ ------ ----------
RG1              CUMULATIVE 0:05     1.0      TIMESERIES 100yr2hr        

[SUBCATCHMENTS]
;;Name           Rain Gage        Outlet           Area     %Imperv  Width    %Slope   CurbLen  SnowPack        
;;-------------- ---------------- ---------------- -------- -------- -------- -------- -------- ----------------
ID1              RG1              J2               22524.07 22.12    99.94    0.05     0                        
ID10             RG1              J32              18003.45 22.73    99.92    0.005    0                        
ID11             RG1              J33              18002.92 30.45    99.92    0.005    0                        
ID12             RG1              J34              23112.24 21.76    100.41   0.005    0                        
ID13             RG1              J6               19818.01 26.84    284.25   0.005    0                        
ID14             RG1              J8               21026.9  27.88    201.41   0.02     0                        
ID15             RG1              J9               20713.03 25.05    99.95    0.02     0                        
ID16             RG1              J10              23772.45 20.77    99.95    0.02     0                        
ID17             RG1              J10              16535.55 27.91    218.06   0.05     0                        
ID18             RG1              J9               17506.67 33.74    224.03   0.02     0                        
ID19             RG1              J7               18514.24 31.11    102.84   0.02     0                        
ID2              RG1              J4               19668.66 20.99    279.2    0.037    0                        
ID20             RG1              J6               18514.64 31.65    102.84   0.02     0                        
ID21             RG1              J5               18515.02 29.75    102.84   0.02     0                        
ID22             RG1              J4               18515.55 26.07    102.84   0.02     0                        
ID23             RG1              J3               18516.14 29.35    102.84   0.02     0                        
ID24             RG1              J1               17514    24.57    224.23   0.02     0                        
ID25             RG1              J28              23239.75 20.22    108.39   0.03     0                        
ID26             RG1              J11              18945.1  28.14    156.15   0.02     0                        
ID27             RG1              J29              18251.32 25.86    107.56   0.03     0                        
ID28             RG1              J37              31084.41 22.53    364.42   0.02     0                        
ID29             RG1              J29              25257.38 20.61    399.28   0.002    0                        
ID3              RG1              J36              17251.55 31.23    84.83    0.037    0                        
ID30             RG1              J17              19311.17 25.41    99.93    0.002    0                        
ID31             RG1              J16              17783.63 25.32    99.94    0.002    0                        
ID32             RG1              J15              17406.07 23.84    103.94   0.002    0                        
ID33             RG1              J14              17997.48 31.88    99.95    0.02     0                        
ID34             RG1              J15              17997.62 19.02    99.94    0.02     0                        
ID35             RG1              J16              17998.65 25.54    99.93    0.02     0                        
ID36             RG1              J17              17999.64 38.22    99.93    0.02     0                        
ID37             RG1              J18              19254.86 42.96    135.83   0.02     0                        
ID38             RG1              J19              20271.62 29.68    132.92   0.02     0                        
ID39             RG1              J37              31499.97 23.76    49.38    0.05     0                        
ID4              RG1              J36              16963.09 31.26    64.32    0.037    0                        
ID40             RG1              J37              17243.73 29.72    105.01   0.05     0                        
ID41             RG1              J12              17978.26 26.06    99.95    0.05     0                        
ID42             RG1              J11              17993.24 32.56    99.95    0.05     0                        
ID43             RG1              J30              18007.73 22.21    99.92    0.068    0                        
ID44             RG1              J26              18007.84 21.55    99.92    0.068    0                        
ID45             RG1              J26              18007.91 26.71    99.92    0.05     0                        
ID46             RG1              J25              18008    28.06    99.92    0.03     0                        
ID47             RG1              J23              17913.56 26.87    100.18   0.03     0                        
ID48             RG1              J23              16798.23 35.3     99.81    0.002    0                        
ID49             RG1              J24              17698.34 26.36    99.92    0.002    0                        
ID5              RG1              J36              16766.77 30.47    109.02   0.037    0                        
ID50             RG1              J25              17997.74 26.07    99.92    0.002    0                        
ID51             RG1              J27              20319.5  21.73    277.74   0.002    0                        
ID52             RG1              J27              18793.83 23.97    287.56   0.005    0                        
ID53             RG1              J14              18132.64 30.16    131.9    0.002    0                        
ID54             RG1              J22              17266.3  25.05    100.83   0.002    0                        
ID55             RG1              J22              17690.37 37.79    105.83   0.03     0                        
ID56             RG1              J21              16240.73 31.32    109.28   0.03     0                        
ID57             RG1              J1               24498.32 24.81    226.58   0.02     0                        
ID58             RG1              J35              17044.77 29.83    100.8    0.037    0                        
ID59             RG1              J36              19749.04 27.71    227.01   0.005    0                        
ID6              RG1              J33              18007.83 34.24    99.92    0.068    0                        
ID60             RG1              J8               18513.94 22.33    102.84   0.02     0                        
ID61             RG1              J2               18516.97 27.63    102.84   0.02     0                        
ID62             RG1              J30              18004.03 31.59    99.92    0.005    0                        
ID63             RG1              J18              21378.62 23.74    100.04   0.002    0                        
ID64             RG1              J37              18403.96 31.41    109.88   0.02     0                        
ID65             RG1              J34              17966.75 31.18    100.06   0.068    0                        
ID66             RG1              J24              18008.01 29.02    99.92    0.03     0                        
ID7              RG1              J32              18014.46 32.51    99.95    0.068    0                        
ID8              RG1              J31              18014.05 26.33    99.95    0.068    0                        
ID9              RG1              J31              18010.36 34.51    99.95    0.005    0                        

[SUBAREAS]
;;Subcatchment   N-Imperv   N-Perv     S-Imperv   S-Perv     PctZero    RouteTo    PctRouted 
;;-------------- ---------- ---------- ---------- ---------- ---------- ---------- ----------
ID1              0.011      0.02       0          0          100        OUTLET    
ID10             0.011      0.02       0          0          100        OUTLET    
ID11             0.011      0.02       0          0          100        OUTLET    
ID12             0.011      0.02       0          0          100        OUTLET    
ID13             0.011      0.02       0          0          100        OUTLET    
ID14             0.011      0.02       0          0          100        OUTLET    
ID15             0.011      0.02       0          0          100        OUTLET    
ID16             0.011      0.02       0          0          100        OUTLET    
ID17             0.011      0.02       0          0          100        OUTLET    
ID18             0.011      0.02       0          0          100        OUTLET    
ID19             0.011      0.02       0          0          100        OUTLET    
ID2              0.011      0.02       0          0          100        OUTLET    
ID20             0.011      0.02       0          0          100        OUTLET    
ID21             0.011      0.02       0          0          100        OUTLET    
ID22             0.011      0.02       0          0          100        OUTLET    
ID23             0.011      0.02       0          0          100        OUTLET    
ID24             0.011      0.02       0          0          100        OUTLET    
ID25             0.011      0.02       0          0          100        OUTLET    
ID26             0.011      0.02       0          0          100        OUTLET    
ID27             0.011      0.02       0          0          100        OUTLET    
ID28             0.011      0.02       0          0          100        OUTLET    
ID29             0.011      0.02       0          0          100        OUTLET    
ID3              0.011      0.02       0          0          100        OUTLET    
ID30             0.011      0.02       0          0          100        OUTLET    
ID31             0.011      0.02       0          0          100        OUTLET    
ID32             0.011      0.02       0          0          100        OUTLET    
ID33             0.011      0.02       0          0          100        OUTLET    
ID34             0.011      0.02       0          0          100        OUTLET    
ID35             0.011      0.02       0          0          100        OUTLET    
ID36             0.011      0.02       0          0          100        OUTLET    
ID37             0.011      0.02       0          0          100        OUTLET    
ID38             0.011      0.02       0          0          100        OUTLET    
ID39             0.011      0.02       0          0          100        OUTLET    
ID4              0.011      0.02       0          0          100        OUTLET    
ID40             0.011      0.02       0          0          100        OUTLET    
ID41             0.011      0.02       0          0          100        OUTLET    
ID42             0.011      0.02       0          0          100        OUTLET    
ID43             0.011      0.02       0          0          100        OUTLET    
ID44             0.011      0.02       0          0          100        OUTLET    
ID45             0.011      0.02       0          0          100        OUTLET    
ID46             0.011      0.02       0          0          100        OUTLET    
ID47             0.011      0.02       0          0          100        OUTLET    
ID48             0.011      0.02       0          0          100        OUTLET    
ID49             0.011      0.02       0          0          100        OUTLET    
ID5              0.011      0.02       0          0          100        OUTLET    
ID50             0.011      0.02       0          0          100        OUTLET    
ID51             0.011      0.02       0          0          100        OUTLET    
ID52             0.011      0.02       0          0          100        OUTLET    
ID53             0.011      0.02       0          0          100        OUTLET    
ID54             0.011      0.02       0          0          100        OUTLET    
ID55             0.011      0.02       0          0          100        OUTLET    
ID56             0.011      0.02       0          0          100        OUTLET    
ID57             0.011      0.02       0          0          100        OUTLET    
ID58             0.011      0.02       0          0          100        OUTLET    
ID59             0.011      0.02       0          0          100        OUTLET    
ID6              0.011      0.02       0          0          100        OUTLET    
ID60             0.011      0.02       0          0          100        OUTLET    
ID61             0.011      0.02       0          0          100        OUTLET    
ID62             0.011      0.02       0          0          100        OUTLET    
ID63             0.011      0.02       0          0          100        OUTLET    
ID64             0.011      0.02       0          0          100        OUTLET    
ID65             0.011      0.02       0          0          100        OUTLET    
ID66             0.011      0.02       0          0          100        OUTLET    
ID7              0.011      0.02       0          0          100        OUTLET    
ID8              0.011      0.02       0          0          100        OUTLET    
ID9              0.011      0.02       0          0          100        OUTLET    

[INFILTRATION]
;;Subcatchment   Param1     Param2     Param3     Param4     Param5    
;;-------------- ---------- ---------- ---------- ---------- ----------
ID1              3.385      0.322      0.2                             
ID10             3.385      0.322      0.2                             
ID11             3.385      0.322      0.2                             
ID12             3.385      0.322      0.2                             
ID13             3.385      0.322      0.2                             
ID14             3.385      0.322      0.2                             
ID15             3.385      0.322      0.2                             
ID16             4.015      0.342      0.2                             
ID17             7.774      0.461      0.2                             
ID18             3.385      0.322      0.2                             
ID19             3.385      0.322      0.2                             
ID2              3.385      0.322      0.2                             
ID20             3.385      0.322      0.2                             
ID21             3.385      0.322      0.2                             
ID22             3.385      0.322      0.2                             
ID23             3.385      0.322      0.2                             
ID24             3.385      0.322      0.2                             
ID25             5.672      0.394      0.2                             
ID26             8.018      0.469      0.2                             
ID27             8.159      0.473      0.2                             
ID28             8.159      0.473      0.2                             
ID29             6.139      0.447      0.2                             
ID3              3.385      0.322      0.2                             
ID30             5.356      0.437      0.2                             
ID31             5.356      0.437      0.2                             
ID32             5.356      0.437      0.2                             
ID33             5.356      0.437      0.2                             
ID34             5.356      0.437      0.2                             
ID35             5.356      0.437      0.2                             
ID36             5.356      0.437      0.2                             
ID37             5.356      0.437      0.2                             
ID38             7.011      0.458      0.2                             
ID39             8.159      0.473      0.2                             
ID4              3.385      0.322      0.2                             
ID40             8.159      0.473      0.2                             
ID41             8.159      0.473      0.2                             
ID42             8.159      0.473      0.2                             
ID43             3.385      0.322      0.2                             
ID44             3.385      0.322      0.2                             
ID45             4.684      0.398      0.2                             
ID46             5.356      0.437      0.2                             
ID47             5.356      0.437      0.2                             
ID48             5.356      0.437      0.2                             
ID49             5.356      0.437      0.2                             
ID5              3.385      0.322      0.2                             
ID50             5.356      0.437      0.2                             
ID51             5.356      0.437      0.2                             
ID52             3.449      0.324      0.2                             
ID53             5.356      0.437      0.2                             
ID54             5.356      0.437      0.2                             
ID55             5.356      0.437      0.2                             
ID56             5.356      0.437      0.2                             
ID57             3.385      0.322      0.2                             
ID58             3.385      0.322      0.2                             
ID59             3.385      0.322      0.2                             
ID6              3.385      0.322      0.2                             
ID60             3.385      0.322      0.2                             
ID61             3.385      0.322      0.2                             
ID62             3.385      0.322      0.2                             
ID63             5.356      0.437      0.2                             
ID64             8.159      0.473      0.2                             
ID65             3.385      0.322      0.2                             
ID66             5.356      0.437      0.2                             
ID7              3.385      0.322      0.2                             
ID8              3.385      0.322      0.2                             
ID9              3.385      0.322      0.2                             

[JUNCTIONS]
;;Name           Elevation  MaxDepth   InitDepth  SurDepth   Aponded   
;;-------------- ---------- ---------- ---------- ---------- ----------
J1               1029.84828 10         0          0          0         
J2               1028.22818 10         0          0          0         
J3               1026.51072 10         0          0          0         
J4               1024.44918 10         0          0          0         
J5               1023.21956 10         0          0          0         
J6               1020.47392 10         0          0          0         
J7               1018.3616  10         0          0          0         
J8               1016.15286 10         0          0          0         
J9               1012.6146  10         0          0          0         
J10              1010.46504 10         0          0          0         
J11              1008.59776 10         0          0          0         
J12              1006.0363  10         0          0          0         
J14              1020.29748 10         0          0          0         
J15              1015.89092 10         0          0          0         
J16              1013.4582  10         0          0          0         
J17              1010.9652  10         0          0          0         
J18              1008.77398 10         0          0          0         
J19              1006.58116 10         0          0          0         
J21              1027.2947  10         0          0          0         
J22              1025.41588 10         0          0          0         
J23              1023.26526 10         0          0          0         
J24              1020.4287  10         0          0          0         
J25              1018.09588 10         0          0          0         
J26              1014.85686 10         0          0          0         
J27              1013.2495  10         0          0          0         
J28              1011.5092  10         0          0          0         
J29              1009.26062 10         0          0          0         
J30              1017.02154 10         0          0          0         
J31              1019.38198 10         0          0          0         
J32              1021.34296 10         0          0          0         
J33              1023.40454 10         0          0          0         
J34              1025.24386 10         0          0          0         
J35              1030.83746 10         0          0          0         
J36              1028.46932 10         0          0          0         
J37              1004.068   10         0          0          0         

[OUTFALLS]
;;Name           Elevation  Type       Stage Data       Gated    Route To        
;;-------------- ---------- ---------- ---------------- -------- ----------------
Outfall          1000       FREE                        NO                       

[CONDUITS]
;;Name           From Node        To Node          Length     Roughness  InOffset   OutOffset  InitFlow   MaxFlow   
;;-------------- ---------------- ---------------- ---------- ---------- ---------- ---------- ---------- ----------
C1               J1               J2               81.005     0.011      0          0          0          0         
C2               J2               J3               85.873     0.011      0          0          0          0         
C3               J3               J4               103.077    0.011      0          0          0          0         
C4               J4               J5               61.481     0.011      0          0          0          0         
C5               J5               J6               137.282    0.011      0          0          0          0         
C6               J6               J7               105.616    0.011      0          0          0          0         
C7               J7               J8               110.437    0.011      0          0          0          0         
C8               J8               J9               176.913    0.011      0          0          0          0         
C9               J9               J10              107.478    0.011      0          0          0          0         
C10              J10              J11              93.364     0.011      0          0          0          0         
C11              J11              J12              128.073    0.011      0          0          0          0         
C12              J12              J37              98.415     0.011      0          0          0          0         
C13              J35              J36              118.407    0.011      0          0          0          0         
C14              J36              J5               201.007    0.011      0          0          0          0         
C15              J34              J33              91.966     0.011      0          0          0          0         
C16              J33              J32              103.079    0.011      0          0          0          0         
C17              J32              J31              98.049     0.011      0          0          0          0         
C18              J31              J30              118.022    0.011      0          0          0          0         
C19              J30              J26              108.234    0.011      0          0          0          0         
C20              J26              J27              80.368     0.011      0          0          0          0         
C21              J27              J28              87.015     0.011      0          0          0          0         
C22              J28              J29              112.429    0.011      0          0          0          0         
C23              J29              J19              133.973    0.011      0          0          0          0         
C24              J19              J37              125.658    0.011      0          0          0          0         
C25              J14              J15              220.328    0.011      0          0          0          0         
C26              J15              J16              121.636    0.011      0          0          0          0         
C27              J16              J17              124.65     0.011      0          0          0          0         
C28              J17              J18              109.561    0.011      0          0          0          0         
C29              J18              J19              109.641    0.011      0          0          0          0         
C30              J21              J22              93.941     0.011      0          0          0          0         
C31              J22              J23              107.531    0.011      0          0          0          0         
C32              J23              J24              141.828    0.011      0          0          0          0         
C33              J24              J25              116.641    0.011      0          0          0          0         
C34              J25              J26              161.951    0.011      0          0          0          0         
C36              J37              Outfall          203.4      0.011      0          0          0          0         

[XSECTIONS]
;;Link           Shape        Geom1            Geom2      Geom3      Geom4      Barrels    Culvert   
;;-------------- ------------ ---------------- ---------- ---------- ---------- ---------- ----------
C1               STREET       LT_StreetHalf   
C2               STREET       LT_StreetHalf   
C3               STREET       LT_StreetHalf   
C4               STREET       LT_StreetHalf   
C5               STREET       LT_StreetHalf   
C6               STREET       LT_StreetHalf   
C7               STREET       LT_StreetHalf   
C8               STREET       LT_StreetHalf   
C9               STREET       LT_StreetHalf   
C10              STREET       LT_StreetHalf   
C11              STREET       LT_StreetHalf   
C12              STREET       LT_StreetHalf   
C13              STREET       LT_StreetHalf   
C14              STREET       LT_StreetHalf   
C15              STREET       LT_StreetHalf   
C16              STREET       LT_StreetHalf   
C17              STREET       LT_StreetHalf   
C18              STREET       LT_StreetHalf   
C19              STREET       LT_StreetHalf   
C20              STREET       LT_StreetHalf   
C21              STREET       LT_StreetHalf   
C22              STREET       LT_StreetHalf   
C23              STREET       LT_StreetHalf   
C24              STREET       LT_StreetHalf   
C25              STREET       LT_StreetHalf   
C26              STREET       LT_StreetHalf   
C27              STREET       LT_StreetHalf   
C28              STREET       LT_StreetHalf   
C29              STREET       LT_StreetHalf   
C30              STREET       LT_StreetHalf   
C31              STREET       LT_StreetHalf   
C32              STREET       LT_StreetHalf   
C33              STREET       LT_StreetHalf   
C34              STREET       LT_StreetHalf   
C36              TRAPEZOIDAL  10               10         0.5        0.5        1                    

[STREETS]
;;Name           Tcrown   Hcurb    Sx       nRoad    a        W        Sides    Tback    Sback    nBack   
;;-------------- -------- -------- -------- -------- -------- -------- -------- -------- -------- --------
LT_StreetHalf    28       0.56     2        0.011    0        0        2        0        0        0       

[TIMESERIES]
;;Name           Date       Time       Value     
;;-------------- ---------- ---------- ----------
100yr2hr         1/1/2000   0:05       0.035     
100yr2hr         1/1/2000   0:10       0.071     
100yr2hr         1/1/2000   0:15       0.112     
100yr2hr         1/1/2000   0:20       0.156     
100yr2hr         1/1/2000   0:25       0.205     
100yr2hr         1/1/2000   0:30       0.261     
100yr2hr         1/1/2000   0:35       0.326     
100yr2hr         1/1/2000   0:40       0.405     
100yr2hr         1/1/2000   0:45       0.505     
100yr2hr         1/1/2000   0:50       0.651     
100yr2hr         1/1/2000   0:55       0.937     
100yr2hr         1/1/2000   1:00       1.942     
100yr2hr         1/1/2000   1:05       2.228     
100yr2hr         1/1/2000   1:10       2.373     
100yr2hr         1/1/2000   1:15       2.474     